64

Mg     -0.000012129500000      1.849993132600000      1.286565127500000
Mg      1.602147136700000      0.924986144200000      3.859696033200000
Mg      3.204258308800000      1.849992875000000      1.286565113600000
Mg      4.806419912500000      0.924987216100000      3.859695887500000
Mg      6.408529552600000      1.849992576900000      1.286565097800000
Mg      8.010691276499999      0.924986913600000      3.859696022200000
Mg      9.612802231500000      1.849993534400000      1.286565103700000
Mg     11.214961454999999      0.924986542100000      3.859696022700000
Mg     -1.602147581500000      4.624975290400000      1.286565121400000
Mg      0.000011734300000      3.699965581900000      3.859696147700000
Mg      1.602122691300000      4.624975001800000      1.286565093300000
Mg      3.204284516300000      3.699966523200000      3.859696038000000
Mg      4.806393932000000      4.624974671000000      1.286565129500000
Mg      6.408555715400000      3.699966202800000      3.859695997200000
Mg      8.010666721700000      4.624975564500000      1.286565097200000
Mg      9.612826044500000      3.699965744200000      3.859696021800000
Mg     -3.204283477600000      7.399955527200000      1.286565092100000
Mg     -1.602124180400000      6.474945759800000      3.859695837700000
Mg     -0.000013150600000      7.399955095800000      1.286565067000000
Mg      1.602148645700000      6.474946624700000      3.859695618400000
Mg      3.204258024800000      7.399954802400000      1.286565093000000
Mg      4.806419838700000      6.474946308000000      3.859696038500000
Mg      6.408530841400000      7.399955715000000      1.286565112600000
Mg      8.010690100500000      6.474946001200000      3.859695887700000
Mg     -4.806418893900000     10.174934728700000      1.286565124200000
Mg     -3.204259697200000      9.249927767100001      3.859695992100000
Mg     -1.602148688200000     10.174934367300001      1.286565092500000
Mg      0.000012981200000      9.249928717400000      3.859695838100000
Mg      1.602122637800000     10.174934098800000      1.286565121400000
Mg      3.204284262400000      9.249928400300000      3.859696148700000
Mg      4.806395398800000     10.174935170199999      1.286565127000000
Mg      6.408554640700000      9.249928153500001      3.859696033700000
Mg     -0.000012093100000      1.849993139100000      6.432825643700000
Mg      1.602147151100000      0.924986108700000      9.005956542200000
Mg      3.204258287500000      1.849992894800000      6.432825529900000
Mg      4.806419911600000      0.924987181000000      9.005956548500000
Mg      6.408529568300000      1.849992578400000      6.432825840200000
Mg      8.010691238300000      0.924986912400000      9.005956577499999
Mg      9.612802246799999      1.849993527300000      6.432825685500000
Mg     11.214961441200000      0.924986548000000      9.005956544900000
Mg     -1.602147553000000      4.624975309700000      6.432825789900000
Mg      0.000011708500000      3.699965589400000      9.005956556799999
Mg      1.602122711300000      4.624975005500000      6.432825640000000
Mg      3.204284524600000      3.699966502900000      9.005956577399999
Mg      4.806393904000000      4.624974689300000      6.432826059700000
Mg      6.408555700900000      3.699966209400000      9.005956603400000
Mg      8.010666729800000      4.624975553100000      6.432825839900000
Mg      9.612826024600000      3.699965775100000      9.005956577299999
Mg     -3.204283497300000      7.399955562200000      6.432825655300000
Mg     -1.602124172000000      6.474945744700000      9.005956572500001
Mg     -0.000013165400000      7.399955106000000      6.432825680900000
Mg      1.602148617400000      6.474946638900000      9.005956541100000
Mg      3.204258033500000      7.399954786100000      6.432825639600000
Mg      4.806419859000000      6.474946307900000      9.005956577499999
Mg      6.408530815200000      7.399955726200000      6.432825529300000
Mg      8.010690128700000      6.474946016400000      9.005956548400000
Mg     -4.806418907500000     10.174934738699999      6.432825653800000
Mg     -3.204259681700000      9.249927756400000      9.005956566300000
Mg     -1.602148726800000     10.174934369800001      6.432825655500000
Mg      0.000012996600000      9.249928714799999      9.005956572900001
Mg      1.602122637100000     10.174934067700001      6.432825789700000
Mg      3.204284241500000      9.249928416400000      9.005956557399999
Mg      4.806395412900000     10.174935138300000      6.432825643300000
Mg      6.408554676800000      9.249928155899999      9.005956542500000
